<?xml version="1.0" encoding="UTF-8"?>

<!-- generated on Tue Nov 12 16:00:47 2013 by SUMO netgenerate Version 0.18.0
<?xml version="1.0" encoding="UTF-8"?>

<configuration xmlns:xsi="http://www.w3.org/2001/XMLSchema-instance" xsi:noNamespaceSchemaLocation="http://sumo.sf.net/xsd/netgenerateConfiguration.xsd">

    <grid_network>
        <grid value="true"/>
        <grid.number value="5"/>
        <grid.length value="500"/>
    </grid_network>

    <output>
        <output-file value="test.net.xml"/>
        <plain-output-prefix value="test"/>
    </output>

    <building_defaults>
        <default.speed value="14"/>
    </building_defaults>

</configuration>
-->

<tlLogics version="0.13" xmlns:xsi="http://www.w3.org/2001/XMLSchema-instance" xsi:noNamespaceSchemaLocation="http://sumo.sf.net/xsd/tllogic_file.xsd">
</tlLogics>
