<?xml version="1.0" encoding="UTF-8"?>

<!-- generated on Tue Nov 12 16:00:47 2013 by SUMO netgenerate Version 0.18.0
<?xml version="1.0" encoding="UTF-8"?>

<configuration xmlns:xsi="http://www.w3.org/2001/XMLSchema-instance" xsi:noNamespaceSchemaLocation="http://sumo.sf.net/xsd/netgenerateConfiguration.xsd">

    <grid_network>
        <grid value="true"/>
        <grid.number value="5"/>
        <grid.length value="500"/>
    </grid_network>

    <output>
        <output-file value="test.net.xml"/>
        <plain-output-prefix value="test"/>
    </output>

    <building_defaults>
        <default.speed value="14"/>
    </building_defaults>

</configuration>
-->

<nodes version="0.13" xmlns:xsi="http://www.w3.org/2001/XMLSchema-instance" xsi:noNamespaceSchemaLocation="http://sumo.sf.net/xsd/nodes_file.xsd">
    <location netOffset="0.00,0.00" convBoundary="0.00,0.00,2000.00,2000.00" origBoundary="0.00,0.00,2000.00,2000.00" projParameter="!"/>

    <node id="0/0" x="0.00" y="0.00" type="priority"/>
    <node id="0/1" x="0.00" y="500.00" type="priority"/>
    <node id="0/2" x="0.00" y="1000.00" type="priority"/>
    <node id="0/3" x="0.00" y="1500.00" type="priority"/>
    <node id="0/4" x="0.00" y="2000.00" type="priority"/>
    <node id="1/0" x="500.00" y="0.00" type="priority"/>
    <node id="1/1" x="500.00" y="500.00" type="priority"/>
    <node id="1/2" x="500.00" y="1000.00" type="priority"/>
    <node id="1/3" x="500.00" y="1500.00" type="priority"/>
    <node id="1/4" x="500.00" y="2000.00" type="priority"/>
    <node id="2/0" x="1000.00" y="0.00" type="priority"/>
    <node id="2/1" x="1000.00" y="500.00" type="priority"/>
    <node id="2/2" x="1000.00" y="1000.00" type="priority"/>
    <node id="2/3" x="1000.00" y="1500.00" type="priority"/>
    <node id="2/4" x="1000.00" y="2000.00" type="priority"/>
    <node id="3/0" x="1500.00" y="0.00" type="priority"/>
    <node id="3/1" x="1500.00" y="500.00" type="priority"/>
    <node id="3/2" x="1500.00" y="1000.00" type="priority"/>
    <node id="3/3" x="1500.00" y="1500.00" type="priority"/>
    <node id="3/4" x="1500.00" y="2000.00" type="priority"/>
    <node id="4/0" x="2000.00" y="0.00" type="priority"/>
    <node id="4/1" x="2000.00" y="500.00" type="priority"/>
    <node id="4/2" x="2000.00" y="1000.00" type="priority"/>
    <node id="4/3" x="2000.00" y="1500.00" type="priority"/>
    <node id="4/4" x="2000.00" y="2000.00" type="priority"/>
</nodes>
