<?xml version="1.0" encoding="UTF-8"?>

<!-- generated on Tue Nov 12 16:04:05 2013 by SUMO netconvert Version 0.18.0
<?xml version="1.0" encoding="UTF-8"?>

<configuration xmlns:xsi="http://www.w3.org/2001/XMLSchema-instance" xsi:noNamespaceSchemaLocation="http://sumo.sf.net/xsd/netconvertConfiguration.xsd">

    <input>
        <node-files value="test.nod.xml"/>
        <edge-files value="test.edg.xml"/>
    </input>

    <output>
        <output-file value="test.net.xml"/>
    </output>

</configuration>
-->

<net version="0.13" xmlns:xsi="http://www.w3.org/2001/XMLSchema-instance" xsi:noNamespaceSchemaLocation="http://sumo.sf.net/xsd/net_file.xsd">

    <location netOffset="0.00,0.00" convBoundary="0.00,0.00,2000.00,2000.00" origBoundary="0.00,0.00,2000.00,2000.00" projParameter="!"/>

    <edge id=":0/1_0" function="internal">
        <lane id=":0/1_0_0" index="0" speed="14.00" length="4.82" shape="0.00,501.65 -1.24,500.82 -1.65,500.00 -1.24,499.18 0.00,498.35"/>
    </edge>
    <edge id=":0/2_0" function="internal">
        <lane id=":0/2_0_0" index="0" speed="14.00" length="4.82" shape="0.00,1001.65 -1.24,1000.83 -1.65,1000.00 -1.24,999.17 0.00,998.35"/>
    </edge>
    <edge id=":0/3_0" function="internal">
        <lane id=":0/3_0_0" index="0" speed="14.00" length="4.82" shape="0.00,1501.65 -1.24,1500.82 -1.65,1500.00 -1.24,1499.17 0.00,1498.35"/>
    </edge>
    <edge id=":1/0_0" function="internal">
        <lane id=":1/0_0_0" index="0" speed="14.00" length="4.82" shape="498.35,0.00 499.18,-1.24 500.00,-1.65 500.82,-1.24 501.65,0.00"/>
    </edge>
    <edge id=":1/1_0" function="internal">
        <lane id=":1/1_0_0" index="0" speed="14.00" length="5.00" shape="498.35,504.75 498.16,503.39 497.58,502.42 496.61,501.84 495.25,501.65"/>
    </edge>
    <edge id=":1/1_1" function="internal">
        <lane id=":1/1_1_0" index="0" speed="14.00" length="9.50" shape="498.35,504.75 498.35,495.25"/>
    </edge>
    <edge id=":1/1_2" function="internal">
        <lane id=":1/1_2_0" index="0" speed="14.00" length="7.14" shape="498.35,504.75 498.75,501.95 499.95,499.95 501.65,498.93"/>
    </edge>
    <edge id=":1/1_16" function="internal">
        <lane id=":1/1_16_0" index="0" speed="14.00" length="3.18" shape="501.65,498.93 501.95,498.75 504.75,498.35"/>
    </edge>
    <edge id=":1/1_3" function="internal">
        <lane id=":1/1_3_0" index="0" speed="14.00" length="2.41" shape="498.35,504.75 499.18,503.51 500.00,503.10"/>
    </edge>
    <edge id=":1/1_17" function="internal">
        <lane id=":1/1_17_0" index="0" speed="14.00" length="2.41" shape="500.00,503.10 500.82,503.51 501.65,504.75"/>
    </edge>
    <edge id=":1/1_4" function="internal">
        <lane id=":1/1_4_0" index="0" speed="14.00" length="5.00" shape="504.75,501.65 503.39,501.84 502.43,502.42 501.84,503.39 501.65,504.75"/>
    </edge>
    <edge id=":1/1_5" function="internal">
        <lane id=":1/1_5_0" index="0" speed="14.00" length="9.50" shape="504.75,501.65 495.25,501.65"/>
    </edge>
    <edge id=":1/1_6" function="internal">
        <lane id=":1/1_6_0" index="0" speed="14.00" length="10.32" shape="504.75,501.65 501.95,501.25 499.95,500.05 498.75,498.05 498.35,495.25"/>
    </edge>
    <edge id=":1/1_7" function="internal">
        <lane id=":1/1_7_0" index="0" speed="14.00" length="4.82" shape="504.75,501.65 503.51,500.82 503.10,500.00 503.51,499.18 504.75,498.35"/>
    </edge>
    <edge id=":1/1_8" function="internal">
        <lane id=":1/1_8_0" index="0" speed="14.00" length="5.00" shape="501.65,495.25 501.84,496.61 502.42,497.57 503.39,498.16 504.75,498.35"/>
    </edge>
    <edge id=":1/1_9" function="internal">
        <lane id=":1/1_9_0" index="0" speed="14.00" length="9.50" shape="501.65,495.25 501.65,504.75"/>
    </edge>
    <edge id=":1/1_10" function="internal">
        <lane id=":1/1_10_0" index="0" speed="14.00" length="7.14" shape="501.65,495.25 501.25,498.05 500.05,500.05 498.35,501.07"/>
    </edge>
    <edge id=":1/1_18" function="internal">
        <lane id=":1/1_18_0" index="0" speed="14.00" length="3.18" shape="498.35,501.07 498.05,501.25 495.25,501.65"/>
    </edge>
    <edge id=":1/1_11" function="internal">
        <lane id=":1/1_11_0" index="0" speed="14.00" length="2.41" shape="501.65,495.25 500.82,496.49 500.00,496.90"/>
    </edge>
    <edge id=":1/1_19" function="internal">
        <lane id=":1/1_19_0" index="0" speed="14.00" length="2.41" shape="500.00,496.90 499.18,496.49 498.35,495.25"/>
    </edge>
    <edge id=":1/1_12" function="internal">
        <lane id=":1/1_12_0" index="0" speed="14.00" length="5.00" shape="495.25,498.35 496.61,498.16 497.58,497.58 498.16,496.61 498.35,495.25"/>
    </edge>
    <edge id=":1/1_13" function="internal">
        <lane id=":1/1_13_0" index="0" speed="14.00" length="9.50" shape="495.25,498.35 504.75,498.35"/>
    </edge>
    <edge id=":1/1_14" function="internal">
        <lane id=":1/1_14_0" index="0" speed="14.00" length="10.32" shape="495.25,498.35 498.05,498.75 500.05,499.95 501.25,501.95 501.65,504.75"/>
    </edge>
    <edge id=":1/1_15" function="internal">
        <lane id=":1/1_15_0" index="0" speed="14.00" length="4.82" shape="495.25,498.35 496.49,499.18 496.90,500.00 496.49,500.82 495.25,501.65"/>
    </edge>
    <edge id=":1/2_0" function="internal">
        <lane id=":1/2_0_0" index="0" speed="14.00" length="5.00" shape="498.35,1004.75 498.16,1003.39 497.58,1002.43 496.61,1001.84 495.25,1001.65"/>
    </edge>
    <edge id=":1/2_1" function="internal">
        <lane id=":1/2_1_0" index="0" speed="14.00" length="9.50" shape="498.35,1004.75 498.35,995.25"/>
    </edge>
    <edge id=":1/2_2" function="internal">
        <lane id=":1/2_2_0" index="0" speed="14.00" length="7.14" shape="498.35,1004.75 498.75,1001.95 499.95,999.95 501.65,998.93"/>
    </edge>
    <edge id=":1/2_16" function="internal">
        <lane id=":1/2_16_0" index="0" speed="14.00" length="3.18" shape="501.65,998.93 501.95,998.75 504.75,998.35"/>
    </edge>
    <edge id=":1/2_3" function="internal">
        <lane id=":1/2_3_0" index="0" speed="14.00" length="2.41" shape="498.35,1004.75 499.18,1003.51 500.00,1003.10"/>
    </edge>
    <edge id=":1/2_17" function="internal">
        <lane id=":1/2_17_0" index="0" speed="14.00" length="2.41" shape="500.00,1003.10 500.82,1003.51 501.65,1004.75"/>
    </edge>
    <edge id=":1/2_4" function="internal">
        <lane id=":1/2_4_0" index="0" speed="14.00" length="5.00" shape="504.75,1001.65 503.39,1001.84 502.43,1002.42 501.84,1003.39 501.65,1004.75"/>
    </edge>
    <edge id=":1/2_5" function="internal">
        <lane id=":1/2_5_0" index="0" speed="14.00" length="9.50" shape="504.75,1001.65 495.25,1001.65"/>
    </edge>
    <edge id=":1/2_6" function="internal">
        <lane id=":1/2_6_0" index="0" speed="14.00" length="10.32" shape="504.75,1001.65 501.95,1001.25 499.95,1000.05 498.75,998.05 498.35,995.25"/>
    </edge>
    <edge id=":1/2_7" function="internal">
        <lane id=":1/2_7_0" index="0" speed="14.00" length="4.82" shape="504.75,1001.65 503.51,1000.83 503.10,1000.00 503.51,999.17 504.75,998.35"/>
    </edge>
    <edge id=":1/2_8" function="internal">
        <lane id=":1/2_8_0" index="0" speed="14.00" length="5.00" shape="501.65,995.25 501.84,996.61 502.42,997.57 503.39,998.16 504.75,998.35"/>
    </edge>
    <edge id=":1/2_9" function="internal">
        <lane id=":1/2_9_0" index="0" speed="14.00" length="9.50" shape="501.65,995.25 501.65,1004.75"/>
    </edge>
    <edge id=":1/2_10" function="internal">
        <lane id=":1/2_10_0" index="0" speed="14.00" length="7.14" shape="501.65,995.25 501.25,998.05 500.05,1000.05 498.35,1001.07"/>
    </edge>
    <edge id=":1/2_18" function="internal">
        <lane id=":1/2_18_0" index="0" speed="14.00" length="3.18" shape="498.35,1001.07 498.05,1001.25 495.25,1001.65"/>
    </edge>
    <edge id=":1/2_11" function="internal">
        <lane id=":1/2_11_0" index="0" speed="14.00" length="2.41" shape="501.65,995.25 500.82,996.49 500.00,996.90"/>
    </edge>
    <edge id=":1/2_19" function="internal">
        <lane id=":1/2_19_0" index="0" speed="14.00" length="2.41" shape="500.00,996.90 499.18,996.49 498.35,995.25"/>
    </edge>
    <edge id=":1/2_12" function="internal">
        <lane id=":1/2_12_0" index="0" speed="14.00" length="5.00" shape="495.25,998.35 496.61,998.16 497.57,997.58 498.16,996.61 498.35,995.25"/>
    </edge>
    <edge id=":1/2_13" function="internal">
        <lane id=":1/2_13_0" index="0" speed="14.00" length="9.50" shape="495.25,998.35 504.75,998.35"/>
    </edge>
    <edge id=":1/2_14" function="internal">
        <lane id=":1/2_14_0" index="0" speed="14.00" length="10.32" shape="495.25,998.35 498.05,998.75 500.05,999.95 501.25,1001.95 501.65,1004.75"/>
    </edge>
    <edge id=":1/2_15" function="internal">
        <lane id=":1/2_15_0" index="0" speed="14.00" length="4.82" shape="495.25,998.35 496.49,999.17 496.90,1000.00 496.49,1000.83 495.25,1001.65"/>
    </edge>
    <edge id=":1/3_0" function="internal">
        <lane id=":1/3_0_0" index="0" speed="14.00" length="5.00" shape="498.35,1504.75 498.16,1503.39 497.58,1502.43 496.61,1501.84 495.25,1501.65"/>
    </edge>
    <edge id=":1/3_1" function="internal">
        <lane id=":1/3_1_0" index="0" speed="14.00" length="9.50" shape="498.35,1504.75 498.35,1495.25"/>
    </edge>
    <edge id=":1/3_2" function="internal">
        <lane id=":1/3_2_0" index="0" speed="14.00" length="7.14" shape="498.35,1504.75 498.75,1501.95 499.95,1499.95 501.65,1498.93"/>
    </edge>
    <edge id=":1/3_16" function="internal">
        <lane id=":1/3_16_0" index="0" speed="14.00" length="3.18" shape="501.65,1498.93 501.95,1498.75 504.75,1498.35"/>
    </edge>
    <edge id=":1/3_3" function="internal">
        <lane id=":1/3_3_0" index="0" speed="14.00" length="2.41" shape="498.35,1504.75 499.18,1503.51 500.00,1503.10"/>
    </edge>
    <edge id=":1/3_17" function="internal">
        <lane id=":1/3_17_0" index="0" speed="14.00" length="2.41" shape="500.00,1503.10 500.82,1503.51 501.65,1504.75"/>
    </edge>
    <edge id=":1/3_4" function="internal">
        <lane id=":1/3_4_0" index="0" speed="14.00" length="5.00" shape="504.75,1501.65 503.39,1501.84 502.42,1502.43 501.84,1503.39 501.65,1504.75"/>
    </edge>
    <edge id=":1/3_5" function="internal">
        <lane id=":1/3_5_0" index="0" speed="14.00" length="9.50" shape="504.75,1501.65 495.25,1501.65"/>
    </edge>
    <edge id=":1/3_6" function="internal">
        <lane id=":1/3_6_0" index="0" speed="14.00" length="10.32" shape="504.75,1501.65 501.95,1501.25 499.95,1500.05 498.75,1498.05 498.35,1495.25"/>
    </edge>
    <edge id=":1/3_7" function="internal">
        <lane id=":1/3_7_0" index="0" speed="14.00" length="4.82" shape="504.75,1501.65 503.51,1500.82 503.10,1500.00 503.51,1499.17 504.75,1498.35"/>
    </edge>
    <edge id=":1/3_8" function="internal">
        <lane id=":1/3_8_0" index="0" speed="14.00" length="5.00" shape="501.65,1495.25 501.84,1496.61 502.42,1497.57 503.39,1498.16 504.75,1498.35"/>
    </edge>
    <edge id=":1/3_9" function="internal">
        <lane id=":1/3_9_0" index="0" speed="14.00" length="9.50" shape="501.65,1495.25 501.65,1504.75"/>
    </edge>
    <edge id=":1/3_10" function="internal">
        <lane id=":1/3_10_0" index="0" speed="14.00" length="7.14" shape="501.65,1495.25 501.25,1498.05 500.05,1500.05 498.35,1501.07"/>
    </edge>
    <edge id=":1/3_18" function="internal">
        <lane id=":1/3_18_0" index="0" speed="14.00" length="3.18" shape="498.35,1501.07 498.05,1501.25 495.25,1501.65"/>
    </edge>
    <edge id=":1/3_11" function="internal">
        <lane id=":1/3_11_0" index="0" speed="14.00" length="2.41" shape="501.65,1495.25 500.82,1496.49 500.00,1496.90"/>
    </edge>
    <edge id=":1/3_19" function="internal">
        <lane id=":1/3_19_0" index="0" speed="14.00" length="2.41" shape="500.00,1496.90 499.18,1496.49 498.35,1495.25"/>
    </edge>
    <edge id=":1/3_12" function="internal">
        <lane id=":1/3_12_0" index="0" speed="14.00" length="5.00" shape="495.25,1498.35 496.61,1498.16 497.57,1497.57 498.16,1496.61 498.35,1495.25"/>
    </edge>
    <edge id=":1/3_13" function="internal">
        <lane id=":1/3_13_0" index="0" speed="14.00" length="9.50" shape="495.25,1498.35 504.75,1498.35"/>
    </edge>
    <edge id=":1/3_14" function="internal">
        <lane id=":1/3_14_0" index="0" speed="14.00" length="10.32" shape="495.25,1498.35 498.05,1498.75 500.05,1499.95 501.25,1501.95 501.65,1504.75"/>
    </edge>
    <edge id=":1/3_15" function="internal">
        <lane id=":1/3_15_0" index="0" speed="14.00" length="4.82" shape="495.25,1498.35 496.49,1499.18 496.90,1500.00 496.49,1500.83 495.25,1501.65"/>
    </edge>
    <edge id=":1/4_0" function="internal">
        <lane id=":1/4_0_0" index="0" speed="14.00" length="4.82" shape="501.65,2000.00 500.82,2001.24 500.00,2001.65 499.18,2001.24 498.35,2000.00"/>
    </edge>
    <edge id=":2/0_0" function="internal">
        <lane id=":2/0_0_0" index="0" speed="14.00" length="4.82" shape="998.35,0.00 999.17,-1.24 1000.00,-1.65 1000.83,-1.24 1001.65,0.00"/>
    </edge>
    <edge id=":2/1_0" function="internal">
        <lane id=":2/1_0_0" index="0" speed="14.00" length="5.00" shape="998.35,504.75 998.16,503.39 997.58,502.43 996.61,501.84 995.25,501.65"/>
    </edge>
    <edge id=":2/1_1" function="internal">
        <lane id=":2/1_1_0" index="0" speed="14.00" length="9.50" shape="998.35,504.75 998.35,495.25"/>
    </edge>
    <edge id=":2/1_2" function="internal">
        <lane id=":2/1_2_0" index="0" speed="14.00" length="7.14" shape="998.35,504.75 998.75,501.95 999.95,499.95 1001.65,498.93"/>
    </edge>
    <edge id=":2/1_16" function="internal">
        <lane id=":2/1_16_0" index="0" speed="14.00" length="3.18" shape="1001.65,498.93 1001.95,498.75 1004.75,498.35"/>
    </edge>
    <edge id=":2/1_3" function="internal">
        <lane id=":2/1_3_0" index="0" speed="14.00" length="2.41" shape="998.35,504.75 999.17,503.51 1000.00,503.10"/>
    </edge>
    <edge id=":2/1_17" function="internal">
        <lane id=":2/1_17_0" index="0" speed="14.00" length="2.41" shape="1000.00,503.10 1000.83,503.51 1001.65,504.75"/>
    </edge>
    <edge id=":2/1_4" function="internal">
        <lane id=":2/1_4_0" index="0" speed="14.00" length="5.00" shape="1004.75,501.65 1003.39,501.84 1002.43,502.42 1001.84,503.39 1001.65,504.75"/>
    </edge>
    <edge id=":2/1_5" function="internal">
        <lane id=":2/1_5_0" index="0" speed="14.00" length="9.50" shape="1004.75,501.65 995.25,501.65"/>
    </edge>
    <edge id=":2/1_6" function="internal">
        <lane id=":2/1_6_0" index="0" speed="14.00" length="10.32" shape="1004.75,501.65 1001.95,501.25 999.95,500.05 998.75,498.05 998.35,495.25"/>
    </edge>
    <edge id=":2/1_7" function="internal">
        <lane id=":2/1_7_0" index="0" speed="14.00" length="4.82" shape="1004.75,501.65 1003.51,500.82 1003.10,500.00 1003.51,499.18 1004.75,498.35"/>
    </edge>
    <edge id=":2/1_8" function="internal">
        <lane id=":2/1_8_0" index="0" speed="14.00" length="5.00" shape="1001.65,495.25 1001.84,496.61 1002.42,497.57 1003.39,498.16 1004.75,498.35"/>
    </edge>
    <edge id=":2/1_9" function="internal">
        <lane id=":2/1_9_0" index="0" speed="14.00" length="9.50" shape="1001.65,495.25 1001.65,504.75"/>
    </edge>
    <edge id=":2/1_10" function="internal">
        <lane id=":2/1_10_0" index="0" speed="14.00" length="7.14" shape="1001.65,495.25 1001.25,498.05 1000.05,500.05 998.35,501.07"/>
    </edge>
    <edge id=":2/1_18" function="internal">
        <lane id=":2/1_18_0" index="0" speed="14.00" length="3.18" shape="998.35,501.07 998.05,501.25 995.25,501.65"/>
    </edge>
    <edge id=":2/1_11" function="internal">
        <lane id=":2/1_11_0" index="0" speed="14.00" length="2.41" shape="1001.65,495.25 1000.83,496.49 1000.00,496.90"/>
    </edge>
    <edge id=":2/1_19" function="internal">
        <lane id=":2/1_19_0" index="0" speed="14.00" length="2.41" shape="1000.00,496.90 999.17,496.49 998.35,495.25"/>
    </edge>
    <edge id=":2/1_12" function="internal">
        <lane id=":2/1_12_0" index="0" speed="14.00" length="5.00" shape="995.25,498.35 996.61,498.16 997.57,497.58 998.16,496.61 998.35,495.25"/>
    </edge>
    <edge id=":2/1_13" function="internal">
        <lane id=":2/1_13_0" index="0" speed="14.00" length="9.50" shape="995.25,498.35 1004.75,498.35"/>
    </edge>
    <edge id=":2/1_14" function="internal">
        <lane id=":2/1_14_0" index="0" speed="14.00" length="10.32" shape="995.25,498.35 998.05,498.75 1000.05,499.95 1001.25,501.95 1001.65,504.75"/>
    </edge>
    <edge id=":2/1_15" function="internal">
        <lane id=":2/1_15_0" index="0" speed="14.00" length="4.82" shape="995.25,498.35 996.49,499.18 996.90,500.00 996.49,500.82 995.25,501.65"/>
    </edge>
    <edge id=":2/2_0" function="internal">
        <lane id=":2/2_0_0" index="0" speed="14.00" length="5.00" shape="998.35,1004.75 998.16,1003.39 997.58,1002.43 996.61,1001.84 995.25,1001.65"/>
    </edge>
    <edge id=":2/2_1" function="internal">
        <lane id=":2/2_1_0" index="0" speed="14.00" length="9.50" shape="998.35,1004.75 998.35,995.25"/>
    </edge>
    <edge id=":2/2_2" function="internal">
        <lane id=":2/2_2_0" index="0" speed="14.00" length="7.14" shape="998.35,1004.75 998.75,1001.95 999.95,999.95 1001.65,998.93"/>
    </edge>
    <edge id=":2/2_16" function="internal">
        <lane id=":2/2_16_0" index="0" speed="14.00" length="3.18" shape="1001.65,998.93 1001.95,998.75 1004.75,998.35"/>
    </edge>
    <edge id=":2/2_3" function="internal">
        <lane id=":2/2_3_0" index="0" speed="14.00" length="2.41" shape="998.35,1004.75 999.17,1003.51 1000.00,1003.10"/>
    </edge>
    <edge id=":2/2_17" function="internal">
        <lane id=":2/2_17_0" index="0" speed="14.00" length="2.41" shape="1000.00,1003.10 1000.83,1003.51 1001.65,1004.75"/>
    </edge>
    <edge id=":2/2_4" function="internal">
        <lane id=":2/2_4_0" index="0" speed="14.00" length="5.00" shape="1004.75,1001.65 1003.39,1001.84 1002.43,1002.42 1001.84,1003.39 1001.65,1004.75"/>
    </edge>
    <edge id=":2/2_5" function="internal">
        <lane id=":2/2_5_0" index="0" speed="14.00" length="9.50" shape="1004.75,1001.65 995.25,1001.65"/>
    </edge>
    <edge id=":2/2_6" function="internal">
        <lane id=":2/2_6_0" index="0" speed="14.00" length="10.32" shape="1004.75,1001.65 1001.95,1001.25 999.95,1000.05 998.75,998.05 998.35,995.25"/>
    </edge>
    <edge id=":2/2_7" function="internal">
        <lane id=":2/2_7_0" index="0" speed="14.00" length="4.82" shape="1004.75,1001.65 1003.51,1000.83 1003.10,1000.00 1003.51,999.17 1004.75,998.35"/>
    </edge>
    <edge id=":2/2_8" function="internal">
        <lane id=":2/2_8_0" index="0" speed="14.00" length="5.00" shape="1001.65,995.25 1001.84,996.61 1002.42,997.57 1003.39,998.16 1004.75,998.35"/>
    </edge>
    <edge id=":2/2_9" function="internal">
        <lane id=":2/2_9_0" index="0" speed="14.00" length="9.50" shape="1001.65,995.25 1001.65,1004.75"/>
    </edge>
    <edge id=":2/2_10" function="internal">
        <lane id=":2/2_10_0" index="0" speed="14.00" length="7.14" shape="1001.65,995.25 1001.25,998.05 1000.05,1000.05 998.35,1001.07"/>
    </edge>
    <edge id=":2/2_18" function="internal">
        <lane id=":2/2_18_0" index="0" speed="14.00" length="3.18" shape="998.35,1001.07 998.05,1001.25 995.25,1001.65"/>
    </edge>
    <edge id=":2/2_11" function="internal">
        <lane id=":2/2_11_0" index="0" speed="14.00" length="2.41" shape="1001.65,995.25 1000.83,996.49 1000.00,996.90"/>
    </edge>
    <edge id=":2/2_19" function="internal">
        <lane id=":2/2_19_0" index="0" speed="14.00" length="2.41" shape="1000.00,996.90 999.17,996.49 998.35,995.25"/>
    </edge>
    <edge id=":2/2_12" function="internal">
        <lane id=":2/2_12_0" index="0" speed="14.00" length="5.00" shape="995.25,998.35 996.61,998.16 997.57,997.58 998.16,996.61 998.35,995.25"/>
    </edge>
    <edge id=":2/2_13" function="internal">
        <lane id=":2/2_13_0" index="0" speed="14.00" length="9.50" shape="995.25,998.35 1004.75,998.35"/>
    </edge>
    <edge id=":2/2_14" function="internal">
        <lane id=":2/2_14_0" index="0" speed="14.00" length="10.32" shape="995.25,998.35 998.05,998.75 1000.05,999.95 1001.25,1001.95 1001.65,1004.75"/>
    </edge>
    <edge id=":2/2_15" function="internal">
        <lane id=":2/2_15_0" index="0" speed="14.00" length="4.82" shape="995.25,998.35 996.49,999.17 996.90,1000.00 996.49,1000.83 995.25,1001.65"/>
    </edge>
    <edge id=":2/3_0" function="internal">
        <lane id=":2/3_0_0" index="0" speed="14.00" length="5.00" shape="998.35,1504.75 998.16,1503.39 997.58,1502.43 996.61,1501.84 995.25,1501.65"/>
    </edge>
    <edge id=":2/3_1" function="internal">
        <lane id=":2/3_1_0" index="0" speed="14.00" length="9.50" shape="998.35,1504.75 998.35,1495.25"/>
    </edge>
    <edge id=":2/3_2" function="internal">
        <lane id=":2/3_2_0" index="0" speed="14.00" length="7.14" shape="998.35,1504.75 998.75,1501.95 999.95,1499.95 1001.65,1498.93"/>
    </edge>
    <edge id=":2/3_16" function="internal">
        <lane id=":2/3_16_0" index="0" speed="14.00" length="3.18" shape="1001.65,1498.93 1001.95,1498.75 1004.75,1498.35"/>
    </edge>
    <edge id=":2/3_3" function="internal">
        <lane id=":2/3_3_0" index="0" speed="14.00" length="2.41" shape="998.35,1504.75 999.17,1503.51 1000.00,1503.10"/>
    </edge>
    <edge id=":2/3_17" function="internal">
        <lane id=":2/3_17_0" index="0" speed="14.00" length="2.41" shape="1000.00,1503.10 1000.83,1503.51 1001.65,1504.75"/>
    </edge>
    <edge id=":2/3_4" function="internal">
        <lane id=":2/3_4_0" index="0" speed="14.00" length="5.00" shape="1004.75,1501.65 1003.39,1501.84 1002.43,1502.43 1001.84,1503.39 1001.65,1504.75"/>
    </edge>
    <edge id=":2/3_5" function="internal">
        <lane id=":2/3_5_0" index="0" speed="14.00" length="9.50" shape="1004.75,1501.65 995.25,1501.65"/>
    </edge>
    <edge id=":2/3_6" function="internal">
        <lane id=":2/3_6_0" index="0" speed="14.00" length="10.32" shape="1004.75,1501.65 1001.95,1501.25 999.95,1500.05 998.75,1498.05 998.35,1495.25"/>
    </edge>
    <edge id=":2/3_7" function="internal">
        <lane id=":2/3_7_0" index="0" speed="14.00" length="4.82" shape="1004.75,1501.65 1003.51,1500.82 1003.10,1500.00 1003.51,1499.17 1004.75,1498.35"/>
    </edge>
    <edge id=":2/3_8" function="internal">
        <lane id=":2/3_8_0" index="0" speed="14.00" length="5.00" shape="1001.65,1495.25 1001.84,1496.61 1002.42,1497.57 1003.39,1498.16 1004.75,1498.35"/>
    </edge>
    <edge id=":2/3_9" function="internal">
        <lane id=":2/3_9_0" index="0" speed="14.00" length="9.50" shape="1001.65,1495.25 1001.65,1504.75"/>
    </edge>
    <edge id=":2/3_10" function="internal">
        <lane id=":2/3_10_0" index="0" speed="14.00" length="7.14" shape="1001.65,1495.25 1001.25,1498.05 1000.05,1500.05 998.35,1501.07"/>
    </edge>
    <edge id=":2/3_18" function="internal">
        <lane id=":2/3_18_0" index="0" speed="14.00" length="3.18" shape="998.35,1501.07 998.05,1501.25 995.25,1501.65"/>
    </edge>
    <edge id=":2/3_11" function="internal">
        <lane id=":2/3_11_0" index="0" speed="14.00" length="2.41" shape="1001.65,1495.25 1000.83,1496.49 1000.00,1496.90"/>
    </edge>
    <edge id=":2/3_19" function="internal">
        <lane id=":2/3_19_0" index="0" speed="14.00" length="2.41" shape="1000.00,1496.90 999.17,1496.49 998.35,1495.25"/>
    </edge>
    <edge id=":2/3_12" function="internal">
        <lane id=":2/3_12_0" index="0" speed="14.00" length="5.00" shape="995.25,1498.35 996.61,1498.16 997.57,1497.57 998.16,1496.61 998.35,1495.25"/>
    </edge>
    <edge id=":2/3_13" function="internal">
        <lane id=":2/3_13_0" index="0" speed="14.00" length="9.50" shape="995.25,1498.35 1004.75,1498.35"/>
    </edge>
    <edge id=":2/3_14" function="internal">
        <lane id=":2/3_14_0" index="0" speed="14.00" length="10.32" shape="995.25,1498.35 998.05,1498.75 1000.05,1499.95 1001.25,1501.95 1001.65,1504.75"/>
    </edge>
    <edge id=":2/3_15" function="internal">
        <lane id=":2/3_15_0" index="0" speed="14.00" length="4.82" shape="995.25,1498.35 996.49,1499.18 996.90,1500.00 996.49,1500.83 995.25,1501.65"/>
    </edge>
    <edge id=":2/4_0" function="internal">
        <lane id=":2/4_0_0" index="0" speed="14.00" length="4.82" shape="1001.65,2000.00 1000.83,2001.24 1000.00,2001.65 999.17,2001.24 998.35,2000.00"/>
    </edge>
    <edge id=":3/0_0" function="internal">
        <lane id=":3/0_0_0" index="0" speed="14.00" length="4.82" shape="1498.35,0.00 1499.18,-1.24 1500.00,-1.65 1500.83,-1.24 1501.65,0.00"/>
    </edge>
    <edge id=":3/1_0" function="internal">
        <lane id=":3/1_0_0" index="0" speed="14.00" length="5.00" shape="1498.35,504.75 1498.16,503.39 1497.57,502.43 1496.61,501.84 1495.25,501.65"/>
    </edge>
    <edge id=":3/1_1" function="internal">
        <lane id=":3/1_1_0" index="0" speed="14.00" length="9.50" shape="1498.35,504.75 1498.35,495.25"/>
    </edge>
    <edge id=":3/1_2" function="internal">
        <lane id=":3/1_2_0" index="0" speed="14.00" length="7.14" shape="1498.35,504.75 1498.75,501.95 1499.95,499.95 1501.65,498.93"/>
    </edge>
    <edge id=":3/1_16" function="internal">
        <lane id=":3/1_16_0" index="0" speed="14.00" length="3.18" shape="1501.65,498.93 1501.95,498.75 1504.75,498.35"/>
    </edge>
    <edge id=":3/1_3" function="internal">
        <lane id=":3/1_3_0" index="0" speed="14.00" length="2.41" shape="1498.35,504.75 1499.18,503.51 1500.00,503.10"/>
    </edge>
    <edge id=":3/1_17" function="internal">
        <lane id=":3/1_17_0" index="0" speed="14.00" length="2.41" shape="1500.00,503.10 1500.83,503.51 1501.65,504.75"/>
    </edge>
    <edge id=":3/1_4" function="internal">
        <lane id=":3/1_4_0" index="0" speed="14.00" length="5.00" shape="1504.75,501.65 1503.39,501.84 1502.43,502.42 1501.84,503.39 1501.65,504.75"/>
    </edge>
    <edge id=":3/1_5" function="internal">
        <lane id=":3/1_5_0" index="0" speed="14.00" length="9.50" shape="1504.75,501.65 1495.25,501.65"/>
    </edge>
    <edge id=":3/1_6" function="internal">
        <lane id=":3/1_6_0" index="0" speed="14.00" length="10.32" shape="1504.75,501.65 1501.95,501.25 1499.95,500.05 1498.75,498.05 1498.35,495.25"/>
    </edge>
    <edge id=":3/1_7" function="internal">
        <lane id=":3/1_7_0" index="0" speed="14.00" length="4.82" shape="1504.75,501.65 1503.51,500.82 1503.10,500.00 1503.51,499.18 1504.75,498.35"/>
    </edge>
    <edge id=":3/1_8" function="internal">
        <lane id=":3/1_8_0" index="0" speed="14.00" length="5.00" shape="1501.65,495.25 1501.84,496.61 1502.43,497.58 1503.39,498.16 1504.75,498.35"/>
    </edge>
    <edge id=":3/1_9" function="internal">
        <lane id=":3/1_9_0" index="0" speed="14.00" length="9.50" shape="1501.65,495.25 1501.65,504.75"/>
    </edge>
    <edge id=":3/1_10" function="internal">
        <lane id=":3/1_10_0" index="0" speed="14.00" length="7.14" shape="1501.65,495.25 1501.25,498.05 1500.05,500.05 1498.35,501.07"/>
    </edge>
    <edge id=":3/1_18" function="internal">
        <lane id=":3/1_18_0" index="0" speed="14.00" length="3.18" shape="1498.35,501.07 1498.05,501.25 1495.25,501.65"/>
    </edge>
    <edge id=":3/1_11" function="internal">
        <lane id=":3/1_11_0" index="0" speed="14.00" length="2.41" shape="1501.65,495.25 1500.82,496.49 1500.00,496.90"/>
    </edge>
    <edge id=":3/1_19" function="internal">
        <lane id=":3/1_19_0" index="0" speed="14.00" length="2.41" shape="1500.00,496.90 1499.17,496.49 1498.35,495.25"/>
    </edge>
    <edge id=":3/1_12" function="internal">
        <lane id=":3/1_12_0" index="0" speed="14.00" length="5.00" shape="1495.25,498.35 1496.61,498.16 1497.57,497.58 1498.16,496.61 1498.35,495.25"/>
    </edge>
    <edge id=":3/1_13" function="internal">
        <lane id=":3/1_13_0" index="0" speed="14.00" length="9.50" shape="1495.25,498.35 1504.75,498.35"/>
    </edge>
    <edge id=":3/1_14" function="internal">
        <lane id=":3/1_14_0" index="0" speed="14.00" length="10.32" shape="1495.25,498.35 1498.05,498.75 1500.05,499.95 1501.25,501.95 1501.65,504.75"/>
    </edge>
    <edge id=":3/1_15" function="internal">
        <lane id=":3/1_15_0" index="0" speed="14.00" length="4.82" shape="1495.25,498.35 1496.49,499.18 1496.90,500.00 1496.49,500.82 1495.25,501.65"/>
    </edge>
    <edge id=":3/2_0" function="internal">
        <lane id=":3/2_0_0" index="0" speed="14.00" length="5.00" shape="1498.35,1004.75 1498.16,1003.39 1497.57,1002.43 1496.61,1001.84 1495.25,1001.65"/>
    </edge>
    <edge id=":3/2_1" function="internal">
        <lane id=":3/2_1_0" index="0" speed="14.00" length="9.50" shape="1498.35,1004.75 1498.35,995.25"/>
    </edge>
    <edge id=":3/2_2" function="internal">
        <lane id=":3/2_2_0" index="0" speed="14.00" length="7.14" shape="1498.35,1004.75 1498.75,1001.95 1499.95,999.95 1501.65,998.93"/>
    </edge>
    <edge id=":3/2_16" function="internal">
        <lane id=":3/2_16_0" index="0" speed="14.00" length="3.18" shape="1501.65,998.93 1501.95,998.75 1504.75,998.35"/>
    </edge>
    <edge id=":3/2_3" function="internal">
        <lane id=":3/2_3_0" index="0" speed="14.00" length="2.41" shape="1498.35,1004.75 1499.18,1003.51 1500.00,1003.10"/>
    </edge>
    <edge id=":3/2_17" function="internal">
        <lane id=":3/2_17_0" index="0" speed="14.00" length="2.41" shape="1500.00,1003.10 1500.83,1003.51 1501.65,1004.75"/>
    </edge>
    <edge id=":3/2_4" function="internal">
        <lane id=":3/2_4_0" index="0" speed="14.00" length="5.00" shape="1504.75,1001.65 1503.39,1001.84 1502.43,1002.42 1501.84,1003.39 1501.65,1004.75"/>
    </edge>
    <edge id=":3/2_5" function="internal">